* Top cell name: top_level

.SUBCKT esd_pdiode N P VSS
    Xd0 P N VSS VSS al=5u
.ENDS

.SUBCKT esd_ndiode N P
    Xd0 P N N N al=5u
.ENDS

.SUBCKT esd_signal_4x SIGNAL VDD_IO VSS_IO
    Xi4 VDD_IO SIGNAL VSS_IO esd_pdiode
    Xi3 VDD_IO SIGNAL VSS_IO esd_pdiode
    Xi2 VDD_IO SIGNAL VSS_IO esd_pdiode
    Xi0 VDD_IO SIGNAL VSS_IO esd_pdiode
    Xi7 SIGNAL VSS_IO esd_ndiode
    Xi6 SIGNAL VSS_IO esd_ndiode
    Xi5 SIGNAL VSS_IO esd_ndiode
    Xi1 SIGNAL VSS_IO esd_ndiode
.ENDS

.SUBCKT esd_pdiode_lt N P VSS
    Xd0 P N VSS VSS al=10u
.ENDS

.SUBCKT esd_ndiode_lt N P
    Xd0 P N N N al=10u
.ENDS

.SUBCKT esd_supply_3_1x_lt MID0 MID1 VDD VSS
    Xi3 MID1 VDD VSS esd_pdiode_lt
    Xi1 VSS MID0 VSS esd_pdiode_lt
    Xi0 MID0 MID1 VSS esd_pdiode_lt
    Xi2 VDD VSS esd_ndiode_lt
.ENDS

.SUBCKT esd_supply_3_4x_lt VDD VSS
    Xi3 MID0 MID1 VDD VSS esd_supply_3_1x_lt
    Xi2 MID0 MID1 VDD VSS esd_supply_3_1x_lt
    Xi1 MID0 MID1 VDD VSS esd_supply_3_1x_lt
    Xi0 MID0 MID1 VDD VSS esd_supply_3_1x_lt
.ENDS

.SUBCKT pad PAD VSS
    Xi0 PAD VSS lt=69.0u
.ENDS

.SUBCKT in_pad IN_PAD OUT VDD_CORE VDD_IO VSS
    Xi2 IN_PAD VDD_IO VSS esd_signal_4x
    Mm7 OUT OUT' VDD_CORE VDD_CORE p_mos l=60n w=400n m=8
    Mm1 OUT_B OUT' VDD_CORE VDD_CORE p_mos l=60n w=200n m=1
    Mm0 OUT' OUT_B VDD_CORE VDD_CORE p_mos l=60n w=200n m=1
    Mm4 IN_PAD' IN_PAD VSS VSS n_mos_io l=280.0n w=600n m=1
    Mm3 OUT_B IN_PAD' VSS VSS n_mos_io l=280.0n w=400n m=6
    Mm2 OUT' IN_PAD VSS VSS n_mos_io l=280.0n w=400n m=6
    Mm5 IN_PAD' IN_PAD VDD_IO VDD_IO p_mos_io l=280.0n w=600n m=1
    Mm6 OUT OUT' VSS VSS n_mos l=60n w=400n m=8
    Xi4 VDD_IO VSS esd_supply_3_4x_lt
    Xi5 IN_PAD VSS pad
.ENDS

.SUBCKT out_pad IN PAD_OUT VDD_CORE VDD_IO VSS
    Mm0 IN' IN VDD_CORE VDD_CORE p_mos l=60n w=120.0n m=1
    Mm1 IN' IN VSS VSS n_mos l=60n w=120.0n m=1
    Mm17 PAD_OUT net28 VSS VSS n_mos_io l=280.0n w=6.4u m=32
    Mm16 net28 net42 VSS VSS n_mos_io l=280.0n w=6.4u m=16
    Mm15 net42 net44 VSS VSS n_mos_io l=280.0n w=1.6u m=16
    Mm14 net44 net35 VSS VSS n_mos_io l=280.0n w=1.6u m=4
    Mm13 net35 net48 VSS VSS n_mos_io l=280.0n w=1.6u m=1
    Mm12 net48 DRIVER_IN VSS VSS n_mos_io l=280n w=400n m=1
    Mm3 DRIVER_IN IN' VSS VSS n_mos_io l=280.0n w=400n m=12
    Mm2 DRIVER_IN' IN VSS VSS n_mos_io l=280.0n w=400n m=12
    Mm11 PAD_OUT net28 VDD_IO VDD_IO p_mos_io l=280.0n w=6.4u m=32
    Mm10 net28 net42 VDD_IO VDD_IO p_mos_io l=280.0n w=6.4u m=16
    Mm9 net42 net44 VDD_IO VDD_IO p_mos_io l=280.0n w=1.6u m=16
    Mm8 net44 net35 VDD_IO VDD_IO p_mos_io l=280.0n w=1.6u m=4
    Mm7 net35 net48 VDD_IO VDD_IO p_mos_io l=280.0n w=1.6u m=1
    Mm6 net48 DRIVER_IN VDD_IO VDD_IO p_mos_io l=280n w=400n m=1
    Mm5 DRIVER_IN DRIVER_IN' VDD_IO VDD_IO p_mos_io l=280n w=400n m=1
    Mm4 DRIVER_IN' DRIVER_IN VDD_IO VDD_IO p_mos_io l=280n w=400n m=1
    Xi1 PAD_OUT VDD_IO VSS esd_signal_4x
    Xi3 VDD_IO VSS esd_supply_3_4x_lt
    Xi4 PAD_OUT VSS pad
.ENDS

.SUBCKT esd_supply_2_1x_lt MID VDD VSS
    Xi1 VSS MID VSS esd_pdiode_lt
    Xi0 MID VDD VSS esd_pdiode_lt
    Xi2 VDD VSS esd_ndiode_lt
.ENDS

.SUBCKT esd_supply_2_4x_lt VDD VSS
    Xi3 net5 VDD VSS esd_supply_2_1x_lt
    Xi2 net5 VDD VSS esd_supply_2_1x_lt
    Xi1 net5 VDD VSS esd_supply_2_1x_lt
    Xi0 net5 VDD VSS esd_supply_2_1x_lt
.ENDS

.SUBCKT vdd_pad VDD VDD_IO VSS
    Xi0 VDD VSS pad
    Xi1 VDD VSS esd_supply_2_4x_lt
    Xi2 VDD_IO VSS esd_supply_3_4x_lt
.ENDS

.SUBCKT vdd_core_pad VDD VDD_IO VSS
    Xi0 VDD VSS pad
    Xi1 VDD VSS esd_supply_2_4x_lt
    Xi2 VDD_IO VSS esd_supply_3_4x_lt
.ENDS

.SUBCKT vss_pad VDD_IO VSS
    Xi0 VSS VSS pad
    Xi1 VDD_IO VSS esd_supply_3_4x_lt
.ENDS

.SUBCKT vdd_io_pad VDD_IO VSS
    Xi0 VDD_IO VSS pad
    Xi1 VDD_IO VSS esd_supply_3_4x_lt
.ENDS

.SUBCKT padframe_v1 JIT_CONF_CLK JIT_CONF_CLK_PAD JIT_CONF_IN JIT_CONF_IN_PAD JIT_CONF_RST
                    + JIT_CONF_RST_PAD JIT_CORE_RST JIT_CORE_RST_PAD JIT_DC_CLK JIT_DC_CLK_PAD
                    + JIT_RO_ENABLE JIT_RO_ENABLE_PAD JIT_RO_OUT0 JIT_RO_OUT0_PAD JIT_RO_OUT1
                    + JIT_RO_OUT1_PAD JIT_SCAN_CLK JIT_SCAN_CLK_PAD JIT_SCAN_OUT JIT_SCAN_OUT_PAD
                    + JIT_SCAN_RST JIT_SCAN_RST_PAD JIT_SCAN_SER JIT_SCAN_SER_PAD JIT_VDD_CORE_PAD
                    + JIT_VDD_JIT0_PAD JIT_VDD_JIT1_PAD TRNG_CONF_CLK TRNG_CONF_CLK_PAD TRNG_CONF_IN
                    + TRNG_CONF_IN_PAD TRNG_CONF_RST TRNG_CONF_RST_PAD TRNG_CORE_RST
                    + TRNG_CORE_RST_PAD TRNG_DATA_OUT TRNG_DATA_OUT_PAD TRNG_DATA_READY
                    + TRNG_DATA_READY_PAD TRNG_EXT_CLK TRNG_EXT_CLK_PAD TRNG_RO_OUT TRNG_RO_OUT_PAD
                    + TRNG_SCAN_CLK TRNG_SCAN_CLK_PAD TRNG_SCAN_OUT TRNG_SCAN_OUT_PAD TRNG_SCAN_RST
                    + TRNG_SCAN_RST_PAD TRNG_SCAN_SER TRNG_SCAN_SER_PAD TRNG_SER_CLK
                    + TRNG_SER_CLK_PAD TRNG_VDD_CORE_PAD TRNG_VDD_DC_PAD TRNG_VDD_TDC_PAD VDD_IO_PAD
                    + VSS_PAD
    Xi19 JIT_SCAN_CLK_PAD JIT_SCAN_CLK JIT_VDD_CORE_PAD VDD_IO_PAD VSS_PAD in_pad
    Xi18 JIT_SCAN_SER_PAD JIT_SCAN_SER JIT_VDD_CORE_PAD VDD_IO_PAD VSS_PAD in_pad
    Xi17 JIT_CONF_RST_PAD JIT_CONF_RST JIT_VDD_CORE_PAD VDD_IO_PAD VSS_PAD in_pad
    Xi16 JIT_CONF_CLK_PAD JIT_CONF_CLK JIT_VDD_CORE_PAD VDD_IO_PAD VSS_PAD in_pad
    Xi15 JIT_CONF_IN_PAD JIT_CONF_IN JIT_VDD_CORE_PAD VDD_IO_PAD VSS_PAD in_pad
    Xi14 JIT_SCAN_RST_PAD JIT_SCAN_RST JIT_VDD_CORE_PAD VDD_IO_PAD VSS_PAD in_pad
    Xi13 TRNG_SCAN_SER_PAD TRNG_SCAN_SER JIT_VDD_CORE_PAD VDD_IO_PAD VSS_PAD in_pad
    Xi12 JIT_RO_ENABLE_PAD JIT_RO_ENABLE JIT_VDD_CORE_PAD VDD_IO_PAD VSS_PAD in_pad
    Xi11 JIT_DC_CLK_PAD JIT_DC_CLK JIT_VDD_CORE_PAD VDD_IO_PAD VSS_PAD in_pad
    Xi10 JIT_CORE_RST_PAD JIT_CORE_RST JIT_VDD_CORE_PAD VDD_IO_PAD VSS_PAD in_pad
    Xi9 TRNG_SCAN_RST_PAD TRNG_SCAN_RST JIT_VDD_CORE_PAD VDD_IO_PAD VSS_PAD in_pad
    Xi8 TRNG_SCAN_CLK_PAD TRNG_SCAN_CLK JIT_VDD_CORE_PAD VDD_IO_PAD VSS_PAD in_pad
    Xi7 TRNG_SER_CLK_PAD TRNG_SER_CLK JIT_VDD_CORE_PAD VDD_IO_PAD VSS_PAD in_pad
    Xi6 TRNG_EXT_CLK_PAD TRNG_EXT_CLK JIT_VDD_CORE_PAD VDD_IO_PAD VSS_PAD in_pad
    Xi5 TRNG_CORE_RST_PAD TRNG_CORE_RST JIT_VDD_CORE_PAD VDD_IO_PAD VSS_PAD in_pad
    Xi4 TRNG_CONF_RST_PAD TRNG_CONF_RST JIT_VDD_CORE_PAD VDD_IO_PAD VSS_PAD in_pad
    Xi3 TRNG_CONF_CLK_PAD TRNG_CONF_CLK JIT_VDD_CORE_PAD VDD_IO_PAD VSS_PAD in_pad
    Xi0 TRNG_CONF_IN_PAD TRNG_CONF_IN JIT_VDD_CORE_PAD VDD_IO_PAD VSS_PAD in_pad
    Xi26 JIT_SCAN_OUT JIT_SCAN_OUT_PAD JIT_VDD_CORE_PAD VDD_IO_PAD VSS_PAD out_pad
    Xi25 JIT_RO_OUT1 JIT_RO_OUT1_PAD JIT_VDD_CORE_PAD VDD_IO_PAD VSS_PAD out_pad
    Xi24 JIT_RO_OUT0 JIT_RO_OUT0_PAD JIT_VDD_CORE_PAD VDD_IO_PAD VSS_PAD out_pad
    Xi23 TRNG_DATA_READY TRNG_DATA_READY_PAD JIT_VDD_CORE_PAD VDD_IO_PAD VSS_PAD out_pad
    Xi22 TRNG_DATA_OUT TRNG_DATA_OUT_PAD JIT_VDD_CORE_PAD VDD_IO_PAD VSS_PAD out_pad
    Xi21 TRNG_RO_OUT TRNG_RO_OUT_PAD JIT_VDD_CORE_PAD VDD_IO_PAD VSS_PAD out_pad
    Xi20 TRNG_SCAN_OUT TRNG_SCAN_OUT_PAD JIT_VDD_CORE_PAD VDD_IO_PAD VSS_PAD out_pad
    Xi31 JIT_VDD_JIT1_PAD VDD_IO_PAD VSS_PAD vdd_pad
    Xi30 JIT_VDD_JIT0_PAD VDD_IO_PAD VSS_PAD vdd_pad
    Xi29 TRNG_VDD_TDC_PAD VDD_IO_PAD VSS_PAD vdd_pad
    Xi28 TRNG_VDD_DC_PAD VDD_IO_PAD VSS_PAD vdd_pad
    Xi27 TRNG_VDD_CORE_PAD VDD_IO_PAD VSS_PAD vdd_pad
    Xi32 JIT_VDD_CORE_PAD VDD_IO_PAD VSS_PAD vdd_core_pad
    Xi37 VDD_IO_PAD VSS_PAD vss_pad
    Xi36 VDD_IO_PAD VSS_PAD vss_pad
    Xi35 VDD_IO_PAD VSS_PAD vss_pad
    Xi34 VDD_IO_PAD VSS_PAD vss_pad
    Xi33 VDD_IO_PAD VSS_PAD vss_pad
    Xi39 VDD_IO_PAD VSS_PAD vdd_io_pad
    Xi38 VDD_IO_PAD VSS_PAD vdd_io_pad
.ENDS

.SUBCKT nand2 IN0 IN1 OUT VDD VSS
    Mm1 net13 IN1 VSS VSS n_mos l=60n w=240.0n m=1
    Mm0 OUT IN0 net13 VSS n_mos l=60n w=240.0n m=1
    Mm3 OUT IN1 VDD VDD p_mos l=60n w=240.0n m=1
    Mm2 OUT IN0 VDD VDD p_mos l=60n w=240.0n m=1
.ENDS

.SUBCKT mux2 IN0 IN1 OUT SEL VDD VSS
    Xi2 net16 net15 OUT VDD VSS nand2
    Xi1 SEL IN1 net15 VDD VSS nand2
    Xi0 IN0 net14 net16 VDD VSS nand2
    Mm0 net14 SEL VDD VDD p_mos l=60n w=240.0n m=1
    Mm1 net14 SEL VSS VSS n_mos l=60n w=240.0n m=1
.ENDS

.SUBCKT mux2_10x IN0<0> IN0<1> IN0<2> IN0<3> IN0<4> IN0<5> IN0<6> IN0<7> IN0<8> IN0<9> IN1<0> IN1<1>
                 + IN1<2> IN1<3> IN1<4> IN1<5> IN1<6> IN1<7> IN1<8> IN1<9> OUT<0> OUT<1> OUT<2>
                 + OUT<3> OUT<4> OUT<5> OUT<6> OUT<7> OUT<8> OUT<9> SEL VDD VSS
    Xi0 IN0<0> IN1<0> OUT<0> SEL VDD VSS mux2
    Xi9 IN0<9> IN1<9> OUT<9> SEL VDD VSS mux2
    Xi8 IN0<8> IN1<8> OUT<8> SEL VDD VSS mux2
    Xi7 IN0<7> IN1<7> OUT<7> SEL VDD VSS mux2
    Xi6 IN0<6> IN1<6> OUT<6> SEL VDD VSS mux2
    Xi5 IN0<5> IN1<5> OUT<5> SEL VDD VSS mux2
    Xi4 IN0<4> IN1<4> OUT<4> SEL VDD VSS mux2
    Xi3 IN0<3> IN1<3> OUT<3> SEL VDD VSS mux2
    Xi2 IN0<2> IN1<2> OUT<2> SEL VDD VSS mux2
    Xi1 IN0<1> IN1<1> OUT<1> SEL VDD VSS mux2
.ENDS

.SUBCKT inv IN OUT VDD VSS
    Mm0 OUT IN VSS VSS n_mos l=60n w=120.0n m=1
    Mm1 OUT IN VDD VDD p_mos l=60n w=240.0n m=1
.ENDS

.SUBCKT nor2 IN0 IN1 OUT VDD VSS
    Mm1 OUT IN1 VSS VSS n_mos l=60n w=120.0n m=1
    Mm0 OUT IN0 VSS VSS n_mos l=60n w=120.0n m=1
    Mm3 net7 IN1 VDD VDD p_mos l=60n w=480.0n m=1
    Mm2 OUT IN0 net7 VDD p_mos l=60n w=480.0n m=1
.ENDS

.SUBCKT dec_stage CONF_RAND FF_IN FF_PREV OUT VDD VSS
    Xi0 FF_IN net3 VDD VSS inv
    Xi1 FF_PREV net3 net4 VDD VSS nor2
    Xi2 net4 CONF_RAND OUT VDD VSS nand2
.ENDS

.SUBCKT nand3 IN0 IN1 IN2 OUT VDD VSS
    Mm2 OUT IN2 VDD VDD p_mos l=60n w=240.0n m=1
    Mm1 OUT IN1 VDD VDD p_mos l=60n w=240.0n m=1
    Mm0 OUT IN0 VDD VDD p_mos l=60n w=240.0n m=1
    Mm5 net17 IN2 VSS VSS n_mos l=60n w=360.0n m=1
    Mm4 net18 IN1 net17 VSS n_mos l=60n w=360.0n m=1
    Mm3 OUT IN0 net18 VSS n_mos l=60n w=360.0n m=1
.ENDS

.SUBCKT dec_6_conf_0 CONF_DEC<0> CONF_DEC<1> CONF_DEC<2> CONF_DEC<3> CONF_DEC<4> CONF_DEC<5>
                     + FF_IN<0> FF_IN<1> FF_IN<2> FF_IN<3> FF_IN<4> FF_IN<5> RAND_OUT VDD VSS
    Xi23 CONF_DEC<5> FF_IN<5> FF_IN<4> STAGE<5> VDD VSS dec_stage
    Xi22 CONF_DEC<4> FF_IN<4> FF_IN<3> STAGE<4> VDD VSS dec_stage
    Xi21 CONF_DEC<3> FF_IN<3> FF_IN<2> STAGE<3> VDD VSS dec_stage
    Xi20 CONF_DEC<2> FF_IN<2> FF_IN<1> STAGE<2> VDD VSS dec_stage
    Xi19 CONF_DEC<1> FF_IN<1> FF_IN<0> STAGE<1> VDD VSS dec_stage
    Xi18 CONF_DEC<0> FF_IN<0> FF_IN<5> STAGE<0> VDD VSS dec_stage
    Xi25 STAGE<3> STAGE<4> STAGE<5> net023 VDD VSS nand3
    Xi24 STAGE<0> STAGE<1> STAGE<2> net026 VDD VSS nand3
    Xi26 net026 net023 RAND_OUT VDD VSS nor2
.ENDS

.SUBCKT nor3 IN0 IN1 IN2 OUT VDD VSS
    Mm2 OUT IN0 net6 VDD p_mos l=60n w=480.0n m=1
    Mm1 net6 IN1 net7 VDD p_mos l=60n w=480.0n m=1
    Mm0 net7 IN2 VDD VDD p_mos l=60n w=480.0n m=1
    Mm5 OUT IN2 VSS VSS n_mos l=60n w=120.0n m=1
    Mm4 OUT IN0 VSS VSS n_mos l=60n w=120.0n m=1
    Mm3 OUT IN1 VSS VSS n_mos l=60n w=120.0n m=1
.ENDS

.SUBCKT nand3_r IN0 IN1 IN2 OUT RST VDD VSS
    Mm3 OUT RST VSS VSS n_mos l=60n w=360.0n m=1
    Mm2 net5 IN2 VSS VSS n_mos l=60n w=360.0n m=1
    Mm1 net16 IN1 net5 VSS n_mos l=60n w=360.0n m=1
    Mm0 OUT IN0 net16 VSS n_mos l=60n w=360.0n m=1
    Mm7 net32 RST VDD VDD p_mos l=60n w=480.0n m=1
    Mm6 OUT IN2 net32 VDD p_mos l=60n w=480.0n m=1
    Mm5 OUT IN1 net32 VDD p_mos l=60n w=480.0n m=1
    Mm4 OUT IN0 net32 VDD p_mos l=60n w=480.0n m=1
.ENDS

.SUBCKT inv_wn IN OUT VDD VSS
    Mm0 OUT IN VSS VSS n_mos l=60n w=240.0n m=1
    Mm1 OUT IN VDD VDD p_mos l=60n w=240.0n m=1
.ENDS

.SUBCKT dff_st_ar_dh CLK Q Q' RST RST' VDD VSS
    Xi5 Q N1 Q' VDD VSS nand2
    Xi4 N0 Q' Q VDD VSS nand2
    Xi0 N3 N0 N2 VDD VSS nand2
    Xi1 CLK N2 RST' N0 VDD VSS nand3
    Xi2 CLK N0 N3 N1 RST VDD VSS nand3_r
    Xi6 N1 N3 VDD VSS inv_wn
.ENDS

.SUBCKT ff_ready FF0<0> FF0<1> FF0<2> FF1<0> FF1<1> FF1<2> FF_READY RST RST' VDD VSS
    Xi0 FF0<0> FF0<1> FF0<2> FF_NOR0 VDD VSS nor3
    Xi1 FF1<0> FF1<1> FF1<2> FF_NOR1 VDD VSS nor3
    Xi2 FF_NOR0 FF_NOR1 FF_NAND VDD VSS nand2
    Xi3 FF_NAND FF_READY net18 RST RST' VDD VSS dff_st_ar_dh
.ENDS

.SUBCKT dff_st_ar CLK D Q Q' RST RST' VDD VSS
    Xi5 Q N1 Q' VDD VSS nand2
    Xi4 N0 Q' Q VDD VSS nand2
    Xi3 N1 D N3 VDD VSS nand2
    Xi0 N3 N0 N2 VDD VSS nand2
    Xi1 CLK N2 RST' N0 VDD VSS nand3
    Xi2 CLK N0 N3 N1 RST VDD VSS nand3_r
.ENDS

.SUBCKT tff_st_ar CLK Q Q' RST RST' VDD VSS
    Xi0 CLK Q' Q Q' RST RST' VDD VSS dff_st_ar
.ENDS

.SUBCKT asynccounter_8 CLK OUT<0> OUT<1> OUT<2> OUT<3> OUT<4> OUT<5> OUT<6> OUT<7> Q' RST RST' VDD
                       + VSS
    Xi7 net4 OUT<4> net5 RST RST' VDD VSS tff_st_ar
    Xi6 net6 OUT<6> net7 RST RST' VDD VSS tff_st_ar
    Xi5 net7 OUT<7> Q' RST RST' VDD VSS tff_st_ar
    Xi4 net5 OUT<5> net6 RST RST' VDD VSS tff_st_ar
    Xi3 net2 OUT<2> net3 RST RST' VDD VSS tff_st_ar
    Xi2 net3 OUT<3> net4 RST RST' VDD VSS tff_st_ar
    Xi1 net1 OUT<1> net2 RST RST' VDD VSS tff_st_ar
    Xi0 CLK OUT<0> net1 RST RST' VDD VSS tff_st_ar
.ENDS

.SUBCKT nand4 IN0 IN1 IN2 IN3 OUT VDD VSS
    Mm3 OUT IN3 VDD VDD p_mos l=60n w=240.0n m=1
    Mm2 OUT IN2 VDD VDD p_mos l=60n w=240.0n m=1
    Mm1 OUT IN1 VDD VDD p_mos l=60n w=240.0n m=1
    Mm0 OUT IN0 VDD VDD p_mos l=60n w=240.0n m=1
    Mm7 net21 IN3 VSS VSS n_mos l=60n w=480.0n m=1
    Mm6 net22 IN2 net21 VSS n_mos l=60n w=480.0n m=1
    Mm5 net23 IN1 net22 VSS n_mos l=60n w=480.0n m=1
    Mm4 OUT IN0 net23 VSS n_mos l=60n w=480.0n m=1
.ENDS

.SUBCKT max_ready CONF_MAXCYCLES<0> CONF_MAXCYCLES<1> CONF_MAXCYCLES<2> CONF_MAXCYCLES<3>
                  + CONF_MAXCYCLES<4> CONF_MAXCYCLES<5> CONF_MAXCYCLES<6> CONF_MAXCYCLES<7> INT
                  + MAX_READY RST RST' VDD VSS
    Xi0 INT CNT<0> CNT<1> CNT<2> CNT<3> CNT<4> CNT<5> CNT<6> CNT<7> net020 RST RST' VDD VSS
        + asynccounter_8
    Xi8 CNT<7> CONF_MAXCYCLES<7> CNT_HIGH<7> VDD VSS nand2
    Xi7 CNT<6> CONF_MAXCYCLES<6> CNT_HIGH<6> VDD VSS nand2
    Xi6 CNT<5> CONF_MAXCYCLES<5> CNT_HIGH<5> VDD VSS nand2
    Xi5 CNT<4> CONF_MAXCYCLES<4> CNT_HIGH<4> VDD VSS nand2
    Xi4 CNT<3> CONF_MAXCYCLES<3> CNT_HIGH<3> VDD VSS nand2
    Xi3 CNT<2> CONF_MAXCYCLES<2> CNT_HIGH<2> VDD VSS nand2
    Xi2 CNT<1> CONF_MAXCYCLES<1> CNT_HIGH<1> VDD VSS nand2
    Xi1 CNT<0> CONF_MAXCYCLES<0> CNT_HIGH<0> VDD VSS nand2
    Xi10 CNT_HIGH<4> CNT_HIGH<5> CNT_HIGH<6> CNT_HIGH<7> net09 VDD VSS nand4
    Xi9 CNT_HIGH<0> CNT_HIGH<1> CNT_HIGH<2> CNT_HIGH<3> net010 VDD VSS nand4
    Xi11 net010 net09 net021 VDD VSS nor2
    Xi12 net021 READY VDD VSS inv
    Xi13 READY MAX_READY net018 RST RST' VDD VSS dff_st_ar_dh
.ENDS

.SUBCKT nor4 IN0 IN1 IN2 IN3 OUT VDD VSS
    Mm3 OUT IN0 net7 VDD p_mos l=60n w=480.0n m=1
    Mm2 net7 IN1 net6 VDD p_mos l=60n w=480.0n m=1
    Mm1 net6 IN2 net5 VDD p_mos l=60n w=480.0n m=1
    Mm0 net5 IN3 VDD VDD p_mos l=60n w=480.0n m=1
    Mm7 OUT IN3 VSS VSS n_mos l=60n w=120.0n m=1
    Mm6 OUT IN2 VSS VSS n_mos l=60n w=120.0n m=1
    Mm5 OUT IN0 VSS VSS n_mos l=60n w=120.0n m=1
    Mm4 OUT IN1 VSS VSS n_mos l=60n w=120.0n m=1
.ENDS

.SUBCKT buffer IN OUT VDD VSS
    Mm1 OUT INT VSS VSS n_mos l=60n w=480.0n m=4
    Mm0 INT IN VSS VSS n_mos l=60n w=480.0n m=1
    Mm3 OUT INT VDD VDD p_mos l=60n w=480.0n m=4
    Mm2 INT IN VDD VDD p_mos l=60n w=480.0n m=1
.ENDS

.SUBCKT wait_ready CLK CONF_WAITCYCLES<0> CONF_WAITCYCLES<1> CONF_WAITCYCLES<2> CONF_WAITCYCLES<3>
                   + CONF_WAITCYCLES<4> CONF_WAITCYCLES<5> CONF_WAITCYCLES<6> CONF_WAITCYCLES<7>
                   + ENABLE_E2L INT RST RST' VDD VSS WAIT_READY
    Xi4 CLK_INT WAIT_CNT<0> WAIT_CNT<1> WAIT_CNT<2> WAIT_CNT<3> WAIT_CNT<4> WAIT_CNT<5> WAIT_CNT<6>
        + WAIT_CNT<7> net044 CNT_RST CNT_RST' VDD VSS asynccounter_8
    Xi26 CLK net049 net052 VDD VSS nand2
    Xi19 WAIT_CNT<7> CONF_WAITCYCLES<7> WAITHIGH<7> VDD VSS nand2
    Xi18 WAIT_CNT<6> CONF_WAITCYCLES<6> WAITHIGH<6> VDD VSS nand2
    Xi17 WAIT_CNT<5> CONF_WAITCYCLES<5> WAITHIGH<5> VDD VSS nand2
    Xi10 WAIT_CNT<4> CONF_WAITCYCLES<4> WAITHIGH<4> VDD VSS nand2
    Xi3 WAIT_CNT<3> CONF_WAITCYCLES<3> WAITHIGH<3> VDD VSS nand2
    Xi2 WAIT_CNT<2> CONF_WAITCYCLES<2> WAITHIGH<2> VDD VSS nand2
    Xi1 WAIT_CNT<1> CONF_WAITCYCLES<1> WAITHIGH<1> VDD VSS nand2
    Xi0 WAIT_CNT<0> CONF_WAITCYCLES<0> WAITHIGH<0> VDD VSS nand2
    Xi15 net14 net13 WAIT_RST_RST' VDD VSS nand2
    Xi11 net19 net18 WAIT_RST VDD VSS nand2
    Xi5 WAIT_RST' RST' CNT_RST VDD VSS nand2
    Xi22 net025 net030 net029 VDD VSS nor2
    Xi12 EDGE EDGE' WAIT_RST' VDD VSS nor2
    Xi6 WAIT_RST RST CNT_RST' VDD VSS nor2
    Xi25 ENABLE_E2L net049 net050 RST RST' VDD VSS dff_st_ar_dh
    Xi24 READY WAIT_READY net034 RST RST' VDD VSS dff_st_ar_dh
    Xi8 INT EDGE net18 WAIT_RST_RST WAIT_RST_RST' VDD VSS dff_st_ar_dh
    Xi7 net15 EDGE' net19 WAIT_RST_RST WAIT_RST_RST' VDD VSS dff_st_ar_dh
    Xi23 net029 READY VDD VSS inv
    Xi16 WAIT_RST_RST' WAIT_RST_RST VDD VSS inv
    Xi9 INT net15 VDD VSS inv
    Xi14 WAIT_CNT<4> WAIT_CNT<5> WAIT_CNT<6> WAIT_CNT<7> net13 VDD VSS nor4
    Xi13 WAIT_CNT<0> WAIT_CNT<1> WAIT_CNT<2> WAIT_CNT<3> net14 VDD VSS nor4
    Xi21 WAITHIGH<0> WAITHIGH<1> WAITHIGH<2> WAITHIGH<3> net025 VDD VSS nand4
    Xi20 WAITHIGH<4> WAITHIGH<5> WAITHIGH<6> WAITHIGH<7> net030 VDD VSS nand4
    Xi27 net052 CLK_INT VDD VSS buffer
.ENDS

.SUBCKT tdc_ready_v0 ALARM<0> ALARM<1> CLK CONF_MAXCYCLES<0> CONF_MAXCYCLES<1> CONF_MAXCYCLES<2>
                     + CONF_MAXCYCLES<3> CONF_MAXCYCLES<4> CONF_MAXCYCLES<5> CONF_MAXCYCLES<6>
                     + CONF_MAXCYCLES<7> CONF_WAITCYCLES<0> CONF_WAITCYCLES<1> CONF_WAITCYCLES<2>
                     + CONF_WAITCYCLES<3> CONF_WAITCYCLES<4> CONF_WAITCYCLES<5> CONF_WAITCYCLES<6>
                     + CONF_WAITCYCLES<7> ENABLE_E2L FF0<0> FF0<1> FF0<2> FF1<0> FF1<1> FF1<2> INT
                     + READY RST RST' VDD VSS
    Xi18 FF0<0> FF0<1> FF0<2> FF1<0> FF1<1> FF1<2> FF_Ready RST RST' VDD VSS ff_ready
    Xi20 CONF_MAXCYCLES<0> CONF_MAXCYCLES<1> CONF_MAXCYCLES<2> CONF_MAXCYCLES<3> CONF_MAXCYCLES<4>
         + CONF_MAXCYCLES<5> CONF_MAXCYCLES<6> CONF_MAXCYCLES<7> INT net017 RST RST' VDD VSS
         + max_ready
    Xi32 ALARM<0> net19 net027 READY_I VDD VSS nand3
    Xi19 CLK CONF_WAITCYCLES<0> CONF_WAITCYCLES<1> CONF_WAITCYCLES<2> CONF_WAITCYCLES<3>
         + CONF_WAITCYCLES<4> CONF_WAITCYCLES<5> CONF_WAITCYCLES<6> CONF_WAITCYCLES<7> ENABLE_E2L
         + INT RST RST' VDD VSS WAIT_Ready wait_ready
    Xi28 WAIT_Ready net19 VDD VSS inv
    Xi27 FF_Ready ALARM<0> VDD VSS inv
    Xi30 READY_I READY Ready' RST RST' VDD VSS dff_st_ar_dh
    Xi33 net017 Ready' ALARM<1> net027 RST RST' VDD VSS dff_st_ar
.ENDS

.SUBCKT tdc_and_diff IN0_N IN0_P IN1_N IN1_P OUT_N OUT_P VDD VSS
    Mm3 net18 IN1_P VSS VSS n_mos l=60n w=240.0n m=1
    Mm2 OUT_N IN0_P net18 VSS n_mos l=60n w=240.0n m=1
    Mm1 OUT_P IN0_N VSS VSS n_mos l=60n w=120.0n m=1
    Mm0 OUT_P IN1_N VSS VSS n_mos l=60n w=120.0n m=1
    Mm5 OUT_N OUT_P VDD VDD p_mos l=60n w=120.0n m=1
    Mm4 OUT_P OUT_N VDD VDD p_mos l=60n w=120.0n m=1
.ENDS

.SUBCKT tdc_buf_diff_np_4lin CONF_N<0> CONF_N<1> CONF_N<2> CONF_N<3> CONF_P<0> CONF_P<1> CONF_P<2>
                             + CONF_P<3> IN_N IN_P OUT_N OUT_P VDD VSS
    Mm51 CONF_N'<3> CONF_N<3> VSS VSS n_mos l=60n w=120.0n m=1
    Mm50 CONF_N'<2> CONF_N<2> VSS VSS n_mos l=60n w=120.0n m=1
    Mm49 CONF_N'<1> CONF_N<1> VSS VSS n_mos l=60n w=120.0n m=1
    Mm48 CONF_N'<0> CONF_N<0> VSS VSS n_mos l=60n w=120.0n m=1
    Mm43 CONF_P'<3> CONF_P<3> VSS VSS n_mos l=60n w=120.0n m=1
    Mm42 CONF_P'<2> CONF_P<2> VSS VSS n_mos l=60n w=120.0n m=1
    Mm41 CONF_P'<1> CONF_P<1> VSS VSS n_mos l=60n w=120.0n m=1
    Mm40 CONF_P'<0> CONF_P<0> VSS VSS n_mos l=60n w=120.0n m=1
    Mm35 OUT_P IN_N VSS VSS n_mos l=60n w=120.0n m=1
    Mm33 OUT_N IN_P VSS VSS n_mos l=60n w=120.0n m=1
    Mm15 net49 CONF_N<3> VSS VSS n_mos l=60n w=120.0n m=1
    Mm14 net52 CONF_N<2> VSS VSS n_mos l=60n w=120.0n m=1
    Mm13 net53 CONF_N<1> VSS VSS n_mos l=60n w=120.0n m=1
    Mm12 net56 CONF_N<0> VSS VSS n_mos l=60n w=120.0n m=1
    Mm11 OUT_P OUT_N net49 VSS n_mos l=60n w=120.0n m=1
    Mm10 OUT_P OUT_N net52 VSS n_mos l=60n w=120.0n m=1
    Mm9 OUT_P OUT_N net53 VSS n_mos l=60n w=120.0n m=1
    Mm8 OUT_P OUT_N net56 VSS n_mos l=60n w=120.0n m=1
    Mm7 net57 CONF_P<3> VSS VSS n_mos l=60n w=120.0n m=1
    Mm6 net60 CONF_P<2> VSS VSS n_mos l=60n w=120.0n m=1
    Mm5 net61 CONF_P<1> VSS VSS n_mos l=60n w=120.0n m=1
    Mm4 net64 CONF_P<0> VSS VSS n_mos l=60n w=120.0n m=1
    Mm3 OUT_N OUT_P net57 VSS n_mos l=60n w=120.0n m=1
    Mm2 OUT_N OUT_P net60 VSS n_mos l=60n w=120.0n m=1
    Mm1 OUT_N OUT_P net61 VSS n_mos l=60n w=120.0n m=1
    Mm0 OUT_N OUT_P net64 VSS n_mos l=60n w=120.0n m=1
    Mm47 CONF_N'<3> CONF_N<3> VDD VDD p_mos l=60n w=120.0n m=1
    Mm46 CONF_N'<2> CONF_N<2> VDD VDD p_mos l=60n w=120.0n m=1
    Mm45 CONF_N'<1> CONF_N<1> VDD VDD p_mos l=60n w=120.0n m=1
    Mm44 CONF_N'<0> CONF_N<0> VDD VDD p_mos l=60n w=120.0n m=1
    Mm39 CONF_P'<3> CONF_P<3> VDD VDD p_mos l=60n w=120.0n m=1
    Mm38 CONF_P'<2> CONF_P<2> VDD VDD p_mos l=60n w=120.0n m=1
    Mm37 CONF_P'<1> CONF_P<1> VDD VDD p_mos l=60n w=120.0n m=1
    Mm36 CONF_P'<0> CONF_P<0> VDD VDD p_mos l=60n w=120.0n m=1
    Mm34 OUT_P IN_N VDD VDD p_mos l=60n w=120.0n m=1
    Mm32 OUT_N IN_P VDD VDD p_mos l=60n w=120.0n m=1
    Mm31 OUT_P OUT_N net50 VDD p_mos l=60n w=120.0n m=1
    Mm30 OUT_P OUT_N net51 VDD p_mos l=60n w=120.0n m=1
    Mm29 OUT_P OUT_N net54 VDD p_mos l=60n w=120.0n m=1
    Mm28 OUT_P OUT_N net55 VDD p_mos l=60n w=120.0n m=1
    Mm27 net50 CONF_P'<3> VDD VDD p_mos l=60n w=120.0n m=1
    Mm26 net51 CONF_P'<2> VDD VDD p_mos l=60n w=120.0n m=1
    Mm25 net54 CONF_P'<1> VDD VDD p_mos l=60n w=120.0n m=1
    Mm24 net55 CONF_P'<0> VDD VDD p_mos l=60n w=120.0n m=1
    Mm23 OUT_N OUT_P net58 VDD p_mos l=60n w=120.0n m=1
    Mm22 OUT_N OUT_P net59 VDD p_mos l=60n w=120.0n m=1
    Mm21 OUT_N OUT_P net62 VDD p_mos l=60n w=120.0n m=1
    Mm20 OUT_N OUT_P net63 VDD p_mos l=60n w=120.0n m=1
    Mm19 net58 CONF_N'<3> VDD VDD p_mos l=60n w=120.0n m=1
    Mm18 net59 CONF_N'<2> VDD VDD p_mos l=60n w=120.0n m=1
    Mm17 net62 CONF_N'<1> VDD VDD p_mos l=60n w=120.0n m=1
    Mm16 net63 CONF_N'<0> VDD VDD p_mos l=60n w=120.0n m=1
.ENDS

.SUBCKT tdc_inv IN OUT VDD VSS
    Mm0 OUT IN VDD VDD p_mos l=60n w=120.0n m=1
    Mm1 OUT IN VSS VSS n_mos l=60n w=120.0n m=1
.ENDS

.SUBCKT tdc_inv_wide IN OUT VDD VSS
    Mm0 OUT IN VSS VSS n_mos l=60n w=480.0n m=1
    Mm1 OUT IN VDD VDD p_mos l=60n w=480.0n m=1
.ENDS

.SUBCKT tdc_stage_diff_np_4lin_buf CONF_N<0> CONF_N<1> CONF_N<2> CONF_N<3> CONF_P<0> CONF_P<1>
                                   + CONF_P<2> CONF_P<3> IN0_N IN0_P IN1_N IN1_P OUT_BUF_N OUT_BUF_P
                                   + OUT_N OUT_P VDD VSS
    Xi0 IN0_N IN0_P IN1_N IN1_P INT_N INT_P VDD VSS tdc_and_diff
    Xi1 CONF_N<0> CONF_N<1> CONF_N<2> CONF_N<3> CONF_P<0> CONF_P<1> CONF_P<2> CONF_P<3> INT_N INT_P
        + OUT_N_I OUT_P_I VDD VSS tdc_buf_diff_np_4lin
    Xi3 OUT_N OUT_BUF_P VDD VSS tdc_inv
    Xi2 OUT_P OUT_BUF_N VDD VSS tdc_inv
    Xi4 OUT_N_I OUT_P VDD VSS tdc_inv_wide
    Xi5 OUT_P_I OUT_N VDD VSS tdc_inv_wide
.ENDS

.SUBCKT tdc_2stage_diff_np_4lin_buf BUF0_N BUF0_P BUF1_N BUF1_P CONF0_N<0> CONF0_N<1> CONF0_N<2>
                                    + CONF0_N<3> CONF0_P<0> CONF0_P<1> CONF0_P<2> CONF0_P<3>
                                    + CONF1_N<0> CONF1_N<1> CONF1_N<2> CONF1_N<3> CONF1_P<0>
                                    + CONF1_P<1> CONF1_P<2> CONF1_P<3> FF0 FF1 IN0_N IN0_P IN1_N
                                    + IN1_P NAND0_IN NAND0_OUT NAND1_IN NAND1_OUT OUT0_N OUT0_P
                                    + OUT1_N OUT1_P RST RST' VDD VSS
    Xi19 OUT_BUF1_N BUF1_N VDD VSS inv_wn
    Xi16 OUT_BUF0_P BUF0_P VDD VSS inv_wn
    Xi17 OUT_BUF0_N BUF0_N VDD VSS inv_wn
    Xi18 OUT_BUF1_P BUF1_P VDD VSS inv_wn
    Xi13 NOR0 NAND0 FF0 Q0' RST RST' VDD VSS dff_st_ar
    Xi12 NOR1 NAND1 FF1 Q1' RST RST' VDD VSS dff_st_ar
    Xi10 Q0' ENABLE0 NAND0_OUT VDD VSS nand2
    Xi11 Q1' ENABLE1 NAND1_OUT VDD VSS nand2
    Xi6 Q1' OUT_BUF0_N NAND1 VDD VSS nand2
    Xi7 Q0' OUT_BUF1_P NAND0 VDD VSS nand2
    Xi9 OUT_BUF0_P NAND0_IN NOR0 VDD VSS nor2
    Xi8 OUT_BUF1_N NAND1_IN NOR1 VDD VSS nor2
    Xi15 NAND0_IN ENABLE0 VDD VSS inv
    Xi14 NAND1_IN ENABLE1 VDD VSS inv
    Xi1 CONF1_N<0> CONF1_N<1> CONF1_N<2> CONF1_N<3> CONF1_P<0> CONF1_P<1> CONF1_P<2> CONF1_P<3>
        + IN1_N IN1_P NAND1_IN ENABLE1 OUT_BUF1_N OUT_BUF1_P OUT1_N OUT1_P VDD VSS
        + tdc_stage_diff_np_4lin_buf
    Xi0 CONF0_N<0> CONF0_N<1> CONF0_N<2> CONF0_N<3> CONF0_P<0> CONF0_P<1> CONF0_P<2> CONF0_P<3>
        + IN0_N IN0_P NAND0_IN ENABLE0 OUT_BUF0_N OUT_BUF0_P OUT0_N OUT0_P VDD VSS
        + tdc_stage_diff_np_4lin_buf
.ENDS

.SUBCKT tdc_stage_diff_np_4lin_switched_buf CONF_N<0> CONF_N<1> CONF_N<2> CONF_N<3> CONF_P<0>
                                            + CONF_P<1> CONF_P<2> CONF_P<3> IN0_N IN0_P IN1_N IN1_P
                                            + OUT_BUF_N OUT_BUF_P OUT_N OUT_P VDD VSS
    Xi0 IN0_N IN0_P IN1_N IN1_P INT_N INT_P VDD VSS tdc_and_diff
    Xi1 CONF_N<0> CONF_N<1> CONF_N<2> CONF_N<3> CONF_P<0> CONF_P<1> CONF_P<2> CONF_P<3> INT_P INT_N
        + OUT_N_I OUT_P_I VDD VSS tdc_buf_diff_np_4lin
    Xi3 OUT_N OUT_BUF_P VDD VSS tdc_inv
    Xi2 OUT_P OUT_BUF_N VDD VSS tdc_inv
    Xi4 OUT_N_I OUT_P VDD VSS tdc_inv_wide
    Xi5 OUT_P_I OUT_N VDD VSS tdc_inv_wide
.ENDS

.SUBCKT tdc_2stage_diff_np_4lin_switched_buf BUF0_N BUF0_P BUF1_N BUF1_P CONF0_N<0> CONF0_N<1>
                                             + CONF0_N<2> CONF0_N<3> CONF0_P<0> CONF0_P<1>
                                             + CONF0_P<2> CONF0_P<3> CONF1_N<0> CONF1_N<1>
                                             + CONF1_N<2> CONF1_N<3> CONF1_P<0> CONF1_P<1>
                                             + CONF1_P<2> CONF1_P<3> EDGE0_N EDGE0_P EDGE1_N EDGE1_P
                                             + FF0 FF1 IN0_N IN0_P IN1_N IN1_P NAND0_IN NAND0_OUT
                                             + NAND1_IN NAND1_OUT OUT0_N OUT0_P OUT1_N OUT1_P RST
                                             + RST' VDD VSS
    Xi15 NAND1_IN RST' net059 VDD VSS nand2
    Xi14 NAND0_IN RST' net036 VDD VSS nand2
    Xi11 Q1' net059 NAND1_OUT VDD VSS nand2
    Xi10 Q0' net036 NAND0_OUT VDD VSS nand2
    Xi4 Q0' OUT_BUF1_P NAND0 VDD VSS nand2
    Xi5 Q1' OUT_BUF0_N NAND1 VDD VSS nand2
    Xi6 OUT_BUF0_P NAND0_IN NOR0 VDD VSS nor2
    Xi7 OUT_BUF1_N NAND1_IN NOR1 VDD VSS nor2
    Xi8 NOR0 NAND0 FF0 Q0' RST RST' VDD VSS dff_st_ar
    Xi9 NOR1 NAND1 FF1 Q1' RST RST' VDD VSS dff_st_ar
    Xi19 OUT_BUF1_N BUF1_N VDD VSS inv_wn
    Xi18 OUT_BUF1_P BUF1_P VDD VSS inv_wn
    Xi17 OUT_BUF0_N BUF0_N VDD VSS inv_wn
    Xi16 OUT_BUF0_P BUF0_P VDD VSS inv_wn
    Xi1 CONF1_N<0> CONF1_N<1> CONF1_N<2> CONF1_N<3> CONF1_P<0> CONF1_P<1> CONF1_P<2> CONF1_P<3>
        + IN1_N IN1_P EDGE1_N EDGE1_P OUT_BUF1_N OUT_BUF1_P OUT1_N OUT1_P VDD VSS
        + tdc_stage_diff_np_4lin_switched_buf
    Xi0 CONF0_N<0> CONF0_N<1> CONF0_N<2> CONF0_N<3> CONF0_P<0> CONF0_P<1> CONF0_P<2> CONF0_P<3>
        + IN0_N IN0_P EDGE0_N EDGE0_P OUT_BUF0_N OUT_BUF0_P OUT0_N OUT0_P VDD VSS
        + tdc_stage_diff_np_4lin_switched_buf
.ENDS

.SUBCKT tdc_2e_2b_diff_np_4lin_buf BUF0_N<0> BUF0_N<1> BUF0_N<2> BUF0_P<0> BUF0_P<1> BUF0_P<2>
                                   + BUF1_N<0> BUF1_N<1> BUF1_N<2> BUF1_P<0> BUF1_P<1> BUF1_P<2>
                                   + CONF0_N<0> CONF0_N<1> CONF0_N<2> CONF0_N<3> CONF0_N<4>
                                   + CONF0_N<5> CONF0_N<6> CONF0_N<7> CONF0_N<8> CONF0_N<9>
                                   + CONF0_N<10> CONF0_N<11> CONF0_P<0> CONF0_P<1> CONF0_P<2>
                                   + CONF0_P<3> CONF0_P<4> CONF0_P<5> CONF0_P<6> CONF0_P<7>
                                   + CONF0_P<8> CONF0_P<9> CONF0_P<10> CONF0_P<11> CONF1_N<0>
                                   + CONF1_N<1> CONF1_N<2> CONF1_N<3> CONF1_N<4> CONF1_N<5>
                                   + CONF1_N<6> CONF1_N<7> CONF1_N<8> CONF1_N<9> CONF1_N<10>
                                   + CONF1_N<11> CONF1_P<0> CONF1_P<1> CONF1_P<2> CONF1_P<3>
                                   + CONF1_P<4> CONF1_P<5> CONF1_P<6> CONF1_P<7> CONF1_P<8>
                                   + CONF1_P<9> CONF1_P<10> CONF1_P<11> EDGE0_N EDGE0_P EDGE1_N
                                   + EDGE1_P FF0<0> FF0<1> FF0<2> FF1<0> FF1<1> FF1<2> RST RST' VDD
                                   + VSS
    Xi14 BUF0_N<2> BUF0_P<2> BUF1_N<2> BUF1_P<2> CONF0_N<8> CONF0_N<9> CONF0_N<10> CONF0_N<11>
         + CONF0_P<8> CONF0_P<9> CONF0_P<10> CONF0_P<11> CONF1_N<8> CONF1_N<9> CONF1_N<10>
         + CONF1_N<11> CONF1_P<8> CONF1_P<9> CONF1_P<10> CONF1_P<11> FF0<2> FF1<2> INT0_N<1>
         + INT0_P<1> INT1_N<1> INT1_P<1> NAND0<1> NAND0<2> NAND1<1> NAND1<2> INT0_N<2> INT0_P<2>
         + INT1_N<2> INT1_P<2> RST RST' VDD VSS tdc_2stage_diff_np_4lin_buf
    Xi13 BUF0_N<1> BUF0_P<1> BUF1_N<1> BUF1_P<1> CONF0_N<4> CONF0_N<5> CONF0_N<6> CONF0_N<7>
         + CONF0_P<4> CONF0_P<5> CONF0_P<6> CONF0_P<7> CONF1_N<4> CONF1_N<5> CONF1_N<6> CONF1_N<7>
         + CONF1_P<4> CONF1_P<5> CONF1_P<6> CONF1_P<7> FF0<1> FF1<1> INT0_N<0> INT0_P<0> INT1_N<0>
         + INT1_P<0> NAND0<0> NAND0<1> NAND1<0> NAND1<1> INT0_N<1> INT0_P<1> INT1_N<1> INT1_P<1> RST
         + RST' VDD VSS tdc_2stage_diff_np_4lin_buf
    Xi12 BUF0_N<0> BUF0_P<0> BUF1_N<0> BUF1_P<0> CONF0_N<0> CONF0_N<1> CONF0_N<2> CONF0_N<3>
         + CONF0_P<0> CONF0_P<1> CONF0_P<2> CONF0_P<3> CONF1_N<0> CONF1_N<1> CONF1_N<2> CONF1_N<3>
         + CONF1_P<0> CONF1_P<1> CONF1_P<2> CONF1_P<3> EDGE0_N EDGE0_P EDGE1_N EDGE1_P FF0<0> FF1<0>
         + INT1_N<2> INT1_P<2> INT0_N<2> INT0_P<2> NAND1<2> NAND0<0> NAND0<2> NAND1<0> INT0_N<0>
         + INT0_P<0> INT1_N<0> INT1_P<0> RST RST' VDD VSS tdc_2stage_diff_np_4lin_switched_buf
.ENDS

.SUBCKT tdc_2b_diff_branch ALARM<0> ALARM<1> BUF1_P<0> CLK CONF0_N<0> CONF0_N<1> CONF0_N<2>
                           + CONF0_N<3> CONF0_N<4> CONF0_N<5> CONF0_N<6> CONF0_N<7> CONF0_N<8>
                           + CONF0_N<9> CONF0_N<10> CONF0_N<11> CONF0_P<0> CONF0_P<1> CONF0_P<2>